packages/distopf/distopf-0.1.2.tar.gz/distopf-0.1.2/examples/dssparser/dssfiles/YD/YD.DSS
clear
Set DefaultBaseFrequency=60

! IEEE 4-bus test case   D-Y Stepdown Balanced
! Based on script developed by Alan Dunn and Steve Sparling

new circuit.4busDYBal   basekV=4.16 phases=3
! **** HAVE TO STIFFEN THE SOURCE UP A LITTLE; THE TEST CASE ASSUMES AN INFINITE BUS
~ mvasc3=2000000 2000000

!set earthmodel=carson

! **** DEFINE WIRE DATA 
new wiredata.conductor Runits=mi Rac=0.306 GMRunits=ft GMRac=0.0244  Radunits=in Diam=0.721 normamps=530
new wiredata.neutral   Runits=mi Rac=0.592 GMRunits=ft GMRac=0.00814 Radunits=in Diam=0.563 normamps=340

! **** DEFINE LINE GEOMETRY; REDUCE OUT THE NEUTRAL
new linegeometry.4wire nconds=4 nphases=3 reduce=yes 
~ cond=1 wire=conductor units=ft x=-4   h=28 
~ cond=2 wire=conductor units=ft x=-1.5 h=28 
~ cond=3 wire=conductor units=ft x=3    h=28 
!~ cond=4 wire=neutral   units=ft x=0    h=24


! **** 3-PHASE STEP-DOWN TRANSFORMER 12.47/4.16 KV Delta-Ygrd
new transformer.t1 xhl=6
~ wdg=1 bus=sourcebus conn=wye kV=4.16 kVA=6000 %r=0.00001
~ wdg=2 bus=n1.1.2.3 conn=delta   kV=4.16  kVA=6000 %r=0.00001


! **** WYE-CONNECTED 4.16 KV LOAD
new load.load1 phases=3 bus1=n1.1.2.3 conn=wye kV=4.16 kW=30 pf=0.9  model=1
! **** HAVE TO ALLOW P, Q TO REMAIN CONSTANT TO ABOUT .79 PU -- THIS IS ASSUMED IN TEST CASE
! **** DEFAULT IN DSS IS .95, BELOW WHICH IT REVERTS TO LINEAR MODEL
~ vminpu=0.75    ! model will remain const p,q down to 0.75 pu voltage    

set voltagebases=[4.16]
calcvoltagebases     ! **** let DSS compute voltage bases
solve

! Various reports ...
//Show Voltage  LL Nodes
//show voltages LN Nodes 
//show currents resid=yes elements  ! this shows sum of phase currents
//Show Powers kva Elements


